data/ENWL/enwl_kron_reduced/network_13/Feeder_3/LineCode.txt
! Subset of available target linecodes, which are closest to the original ones in terms of positive sequence impedance
! ---------------------------------------------------------------------------------------------------------------------------------------------------------------------------------------------------
! original name: BS 5467 1997 table 10 16 (50 Hz)
New LineCode.LC1 nphases=3 Units=km
~ Rmatrix=(1.5112190183206278 0.3516463191860947 0.35924119542631033 | 0.3516463191860947 1.4959834903633085 0.3516347677246592 | 0.35924119542631033 0.3516347677246592 1.5111953727391252)
~ Xmatrix=(0.48261336669352367 0.4106734223692922 0.3786293578031279 | 0.4106734223692922 0.4985555265646619 0.4106561462112567 | 0.3786293578031279 0.4106561462112567 0.48258034857901405)
~ Cmatrix=(0.0 0.0 0.0 | 0.0 0.0 0.0 | 0.0 0.0 0.0)

! original name: Waveform 4-core 300 IEC 60287 (50 Hz)
New LineCode.LC8 nphases=3 Units=km
~ Rmatrix=(0.16985456261876036 0.06410019258565515 0.06319856261876038 | 0.06410019258565515 0.17321094309067284 0.06410019258565515 | 0.06319856261876038 0.06410019258565515 0.16985456261876036)
~ Xmatrix=(0.09071426854225964 0.04262044882571686 0.008149268542259634 | 0.04262044882571686 0.11502590419087236 0.04262044882571686 | 0.008149268542259634 0.04262044882571686 0.09071426854225964)
~ Cmatrix=(0.0 0.0 0.0 | 0.0 0.0 0.0 | 0.0 0.0 0.0)

! original name: Waveform 4-core 95 IEC 60287 (50 Hz)
New LineCode.LC9 nphases=3 Units=km
~ Rmatrix=(0.46986676385495474 0.14542350948933958 0.14705976385495478 | 0.14542350948933958 0.4673400201731894 0.14542350948933958 | 0.14705976385495478 0.14542350948933958 0.46986676385495474)
~ Xmatrix=(0.11444342791694348 0.06325078830784543 0.030935427916943453 | 0.06325078830784543 0.13484657137128891 0.06325078830784543 | 0.030935427916943453 0.06325078830784543 0.11444342791694348)
~ Cmatrix=(0.0 0.0 0.0 | 0.0 0.0 0.0 | 0.0 0.0 0.0)
! ---------------------------------------------------------------------------------------------------------------------------------------------------------------------------------------------------